!- Unix Line endings 

Version,
    9.5;                      !- Version Identifier

SimulationControl,
    Yes,                      !- Do Zone Sizing Calculation
    Yes,                      !- Do System Sizing Calculation
    Yes,                      !- Do Plant Sizing Calculation
    Yes,                      !- Run Simulation for Sizing Periods
    Yes,                      !- Run Simulation for Weather File Run Periods
    Yes,                      !- Do HVAC Sizing Simulation for Sizing Periods
    1;                        !- Maximum Number of HVAC Sizing Simulation Passes

Building,
    None,                     !- Name
    0,                        !- North Axis
    Suburbs,                  !- Terrain
    0.04,                     !- Loads Convergence Tolerance Value
    0.4,                      !- Temperature Convergence Tolerance Value
    FullInteriorAndExterior,    !- Solar Distribution
    25,                       !- Maximum Number of Warmup Days
    6;                        !- Minimum Number of Warmup Days

Timestep,
    4;                        !- Number of Timesteps per Hour

Site:Location,
    DENVER_STAPLETON_CO_USA_WMO_724690,    !- Name
    39.77,                    !- Latitude
    -104.87,                  !- Longitude
    -7,                       !- Time Zone
    1611;                     !- Elevation

SizingPeriod:DesignDay,
    DENVER_STAPLETON Ann Htg 99.6% Condns DB,    !- Name
    12,                       !- Month
    21,                       !- Day of Month
    WinterDesignDay,          !- Day Type
    -20,                      !- Maximum DryBulb Temperature
    0,                        !- Daily DryBulb Temperature Range
    ,                         !- DryBulb Temperature Range Modifier Type
    ,                         !- DryBulb Temperature Range Modifier Day Schedule Name
    Wetbulb,                  !- Humidity Condition Type
    -20,                      !- Wetbulb or DewPoint at Maximum DryBulb
    ,                         !- Humidity Condition Day Schedule Name
    ,                         !- Humidity Ratio at Maximum DryBulb
    ,                         !- Enthalpy at Maximum DryBulb
    ,                         !- Daily WetBulb Temperature Range
    83411,                    !- Barometric Pressure
    2.3,                      !- Wind Speed
    180,                      !- Wind Direction
    No,                       !- Rain Indicator
    No,                       !- Snow Indicator
    No,                       !- Daylight Saving Time Indicator
    ASHRAEClearSky,           !- Solar Model Indicator
    ,                         !- Beam Solar Day Schedule Name
    ,                         !- Diffuse Solar Day Schedule Name
    ,                         !- ASHRAE Clear Sky Optical Depth for Beam Irradiance taub
    ,                         !- ASHRAE Clear Sky Optical Depth for Diffuse Irradiance taud
    0;                        !- Sky Clearness

SizingPeriod:DesignDay,
    DENVER_STAPLETON Ann Clg .4% Condns DB=>MWB,    !- Name
    7,                        !- Month
    21,                       !- Day of Month
    SummerDesignDay,          !- Day Type
    34.1,                     !- Maximum DryBulb Temperature
    15.2,                     !- Daily DryBulb Temperature Range
    ,                         !- DryBulb Temperature Range Modifier Type
    ,                         !- DryBulb Temperature Range Modifier Day Schedule Name
    Wetbulb,                  !- Humidity Condition Type
    15.8,                     !- Wetbulb or DewPoint at Maximum DryBulb
    ,                         !- Humidity Condition Day Schedule Name
    ,                         !- Humidity Ratio at Maximum DryBulb
    ,                         !- Enthalpy at Maximum DryBulb
    ,                         !- Daily WetBulb Temperature Range
    83411,                    !- Barometric Pressure
    4,                        !- Wind Speed
    120,                      !- Wind Direction
    No,                       !- Rain Indicator
    No,                       !- Snow Indicator
    No,                       !- Daylight Saving Time Indicator
    ASHRAEClearSky,           !- Solar Model Indicator
    ,                         !- Beam Solar Day Schedule Name
    ,                         !- Diffuse Solar Day Schedule Name
    ,                         !- ASHRAE Clear Sky Optical Depth for Beam Irradiance taub
    ,                         !- ASHRAE Clear Sky Optical Depth for Diffuse Irradiance taud
    1;                        !- Sky Clearness

RunPeriod,
    Run Period 1,             !- Name
    1,                        !- Begin Month
    1,                        !- Begin Day of Month
    ,                         !- Begin Year
    12,                       !- End Month
    31,                       !- End Day of Month
    ,                         !- End Year
    Tuesday,                  !- Day of Week for Start Day
    Yes,                      !- Use Weather File Holidays and Special Days
    Yes,                      !- Use Weather File Daylight Saving Period
    No,                       !- Apply Weekend Holiday Rule
    Yes,                      !- Use Weather File Rain Indicators
    Yes;                      !- Use Weather File Snow Indicators

SITE:GROUNDTEMPERATURE:FCFACTORMETHOD,
    11.4,                     !- January Ground Temperature
    8.1,                      !- February Ground Temperature
    5.4,                      !- March Ground Temperature
    4.5,                      !- April Ground Temperature
    5.8,                      !- May Ground Temperature
    8.3,                      !- June Ground Temperature
    10.9,                     !- July Ground Temperature
    13,                       !- August Ground Temperature
    15.6,                     !- September Ground Temperature
    17.7,                     !- October Ground Temperature
    18.8,                     !- November Ground Temperature
    15.1;                     !- December Ground Temperature

ScheduleTypeLimits,
    OnOff,                    !- Name
    0,                        !- Lower Limit Value
    1,                        !- Upper Limit Value
    Discrete,                 !- Numeric Type
    availability;             !- Unit Type

ScheduleTypeLimits,
    Fraction,                 !- Name
    0,                        !- Lower Limit Value
    1,                        !- Upper Limit Value
    Continuous,               !- Numeric Type
    dimensionless;            !- Unit Type

ScheduleTypeLimits,
    Fraction 1,               !- Name
    0,                        !- Lower Limit Value
    1,                        !- Upper Limit Value
    Continuous,               !- Numeric Type
    dimensionless;            !- Unit Type

ScheduleTypeLimits,
    Temperature,              !- Name
    ,                         !- Lower Limit Value
    ,                         !- Upper Limit Value
    Continuous,               !- Numeric Type
    temperature;              !- Unit Type

ScheduleTypeLimits,
    Temperature 1,            !- Name
    ,                         !- Lower Limit Value
    ,                         !- Upper Limit Value
    Continuous,               !- Numeric Type
    temperature;              !- Unit Type

ScheduleTypeLimits,
    Temperature Schedule Type Limits,    !- Name
    0,                        !- Lower Limit Value
    100,                      !- Upper Limit Value
    Continuous,               !- Numeric Type
    temperature;              !- Unit Type

ScheduleTypeLimits,
    Temperature Schedule Type Limits 1,    !- Name
    0,                        !- Lower Limit Value
    100,                      !- Upper Limit Value
    Continuous,               !- Numeric Type
    temperature;              !- Unit Type

Schedule:Day:Interval,
    Fraction Latent - 0.05 Default,    !- Name
    Fraction 1,               !- Schedule Type Limits Name
    No,                       !- Interpolate to Timestep
    24:00,                    !- Time 1
    0.05;                     !- Value Until Time 1

Schedule:Day:Interval,
    Fraction Sensible - 0.2 Default,    !- Name
    Fraction,                 !- Schedule Type Limits Name
    No,                       !- Interpolate to Timestep
    24:00,                    !- Time 1
    0.2;                      !- Value Until Time 1

Schedule:Day:Interval,
    Mixed Water At Faucet Temp - 140F Default,    !- Name
    Temperature,              !- Schedule Type Limits Name
    No,                       !- Interpolate to Timestep
    24:00,                    !- Time 1
    60.0000000000001;         !- Value Until Time 1

Schedule:Day:Interval,
    Schedule Day 1,           !- Name
    Temperature 1,            !- Schedule Type Limits Name
    No,                       !- Interpolate to Timestep
    24:00,                    !- Time 1
    22;                       !- Value Until Time 1

Schedule:Day:Interval,
    Schedule Day 2,           !- Name
    Temperature 1,            !- Schedule Type Limits Name
    No,                       !- Interpolate to Timestep
    24:00,                    !- Time 1
    60;                       !- Value Until Time 1

Schedule:Day:Interval,
    Service Water Loop Temp - 140F Default,    !- Name
    Temperature Schedule Type Limits,    !- Schedule Type Limits Name
    No,                       !- Interpolate to Timestep
    24:00,                    !- Time 1
    60.0000000000001;         !- Value Until Time 1

Schedule:Day:Interval,
    Water Heater Ambient Temp Schedule - 71.6f Default,    !- Name
    Temperature Schedule Type Limits 1,    !- Schedule Type Limits Name
    No,                       !- Interpolate to Timestep
    24:00,                    !- Time 1
    22.0000000000001;         !- Value Until Time 1

Schedule:Week:Daily,
    Fraction Latent - 0.05 Week Rule - Jan1-Dec31,    !- Name
    Fraction Latent - 0.05 Default,    !- Sunday ScheduleDay Name
    Fraction Latent - 0.05 Default,    !- Monday ScheduleDay Name
    Fraction Latent - 0.05 Default,    !- Tuesday ScheduleDay Name
    Fraction Latent - 0.05 Default,    !- Wednesday ScheduleDay Name
    Fraction Latent - 0.05 Default,    !- Thursday ScheduleDay Name
    Fraction Latent - 0.05 Default,    !- Friday ScheduleDay Name
    Fraction Latent - 0.05 Default,    !- Saturday ScheduleDay Name
    Fraction Latent - 0.05 Default,    !- Holiday ScheduleDay Name
    Fraction Latent - 0.05 Default,    !- SummerDesignDay ScheduleDay Name
    Fraction Latent - 0.05 Default,    !- WinterDesignDay ScheduleDay Name
    Fraction Latent - 0.05 Default,    !- CustomDay1 ScheduleDay Name
    Fraction Latent - 0.05 Default;    !- CustomDay2 ScheduleDay Name

Schedule:Week:Daily,
    Fraction Sensible - 0.2 Week Rule - Jan1-Dec31,    !- Name
    Fraction Sensible - 0.2 Default,    !- Sunday ScheduleDay Name
    Fraction Sensible - 0.2 Default,    !- Monday ScheduleDay Name
    Fraction Sensible - 0.2 Default,    !- Tuesday ScheduleDay Name
    Fraction Sensible - 0.2 Default,    !- Wednesday ScheduleDay Name
    Fraction Sensible - 0.2 Default,    !- Thursday ScheduleDay Name
    Fraction Sensible - 0.2 Default,    !- Friday ScheduleDay Name
    Fraction Sensible - 0.2 Default,    !- Saturday ScheduleDay Name
    Fraction Sensible - 0.2 Default,    !- Holiday ScheduleDay Name
    Fraction Sensible - 0.2 Default,    !- SummerDesignDay ScheduleDay Name
    Fraction Sensible - 0.2 Default,    !- WinterDesignDay ScheduleDay Name
    Fraction Sensible - 0.2 Default,    !- CustomDay1 ScheduleDay Name
    Fraction Sensible - 0.2 Default;    !- CustomDay2 ScheduleDay Name

Schedule:Week:Daily,
    Mixed Water At Faucet Temp - 140F Week Rule - Jan1-Dec31,    !- Name
    Mixed Water At Faucet Temp - 140F Default,    !- Sunday ScheduleDay Name
    Mixed Water At Faucet Temp - 140F Default,    !- Monday ScheduleDay Name
    Mixed Water At Faucet Temp - 140F Default,    !- Tuesday ScheduleDay Name
    Mixed Water At Faucet Temp - 140F Default,    !- Wednesday ScheduleDay Name
    Mixed Water At Faucet Temp - 140F Default,    !- Thursday ScheduleDay Name
    Mixed Water At Faucet Temp - 140F Default,    !- Friday ScheduleDay Name
    Mixed Water At Faucet Temp - 140F Default,    !- Saturday ScheduleDay Name
    Mixed Water At Faucet Temp - 140F Default,    !- Holiday ScheduleDay Name
    Mixed Water At Faucet Temp - 140F Default,    !- SummerDesignDay ScheduleDay Name
    Mixed Water At Faucet Temp - 140F Default,    !- WinterDesignDay ScheduleDay Name
    Mixed Water At Faucet Temp - 140F Default,    !- CustomDay1 ScheduleDay Name
    Mixed Water At Faucet Temp - 140F Default;    !- CustomDay2 ScheduleDay Name

Schedule:Week:Daily,
    Schedule Ruleset 1 Week Rule - Jan1-Dec31,    !- Name
    Schedule Day 1,           !- Sunday ScheduleDay Name
    Schedule Day 1,           !- Monday ScheduleDay Name
    Schedule Day 1,           !- Tuesday ScheduleDay Name
    Schedule Day 1,           !- Wednesday ScheduleDay Name
    Schedule Day 1,           !- Thursday ScheduleDay Name
    Schedule Day 1,           !- Friday ScheduleDay Name
    Schedule Day 1,           !- Saturday ScheduleDay Name
    Schedule Day 1,           !- Holiday ScheduleDay Name
    Schedule Day 1,           !- SummerDesignDay ScheduleDay Name
    Schedule Day 1,           !- WinterDesignDay ScheduleDay Name
    Schedule Day 1,           !- CustomDay1 ScheduleDay Name
    Schedule Day 1;           !- CustomDay2 ScheduleDay Name

Schedule:Week:Daily,
    Schedule Ruleset 2 Week Rule - Jan1-Dec31,    !- Name
    Schedule Day 2,           !- Sunday ScheduleDay Name
    Schedule Day 2,           !- Monday ScheduleDay Name
    Schedule Day 2,           !- Tuesday ScheduleDay Name
    Schedule Day 2,           !- Wednesday ScheduleDay Name
    Schedule Day 2,           !- Thursday ScheduleDay Name
    Schedule Day 2,           !- Friday ScheduleDay Name
    Schedule Day 2,           !- Saturday ScheduleDay Name
    Schedule Day 2,           !- Holiday ScheduleDay Name
    Schedule Day 2,           !- SummerDesignDay ScheduleDay Name
    Schedule Day 2,           !- WinterDesignDay ScheduleDay Name
    Schedule Day 2,           !- CustomDay1 ScheduleDay Name
    Schedule Day 2;           !- CustomDay2 ScheduleDay Name

Schedule:Week:Daily,
    Service Water Loop Temp - 140F Week Rule - Jan1-Dec31,    !- Name
    Service Water Loop Temp - 140F Default,    !- Sunday ScheduleDay Name
    Service Water Loop Temp - 140F Default,    !- Monday ScheduleDay Name
    Service Water Loop Temp - 140F Default,    !- Tuesday ScheduleDay Name
    Service Water Loop Temp - 140F Default,    !- Wednesday ScheduleDay Name
    Service Water Loop Temp - 140F Default,    !- Thursday ScheduleDay Name
    Service Water Loop Temp - 140F Default,    !- Friday ScheduleDay Name
    Service Water Loop Temp - 140F Default,    !- Saturday ScheduleDay Name
    Service Water Loop Temp - 140F Default,    !- Holiday ScheduleDay Name
    Service Water Loop Temp - 140F Default,    !- SummerDesignDay ScheduleDay Name
    Service Water Loop Temp - 140F Default,    !- WinterDesignDay ScheduleDay Name
    Service Water Loop Temp - 140F Default,    !- CustomDay1 ScheduleDay Name
    Service Water Loop Temp - 140F Default;    !- CustomDay2 ScheduleDay Name

Schedule:Week:Daily,
    Water Heater Ambient Temp Schedule - 71.6f Week Rule - Jan1-Dec31,    !- Name
    Water Heater Ambient Temp Schedule - 71.6f Default,    !- Sunday ScheduleDay Name
    Water Heater Ambient Temp Schedule - 71.6f Default,    !- Monday ScheduleDay Name
    Water Heater Ambient Temp Schedule - 71.6f Default,    !- Tuesday ScheduleDay Name
    Water Heater Ambient Temp Schedule - 71.6f Default,    !- Wednesday ScheduleDay Name
    Water Heater Ambient Temp Schedule - 71.6f Default,    !- Thursday ScheduleDay Name
    Water Heater Ambient Temp Schedule - 71.6f Default,    !- Friday ScheduleDay Name
    Water Heater Ambient Temp Schedule - 71.6f Default,    !- Saturday ScheduleDay Name
    Water Heater Ambient Temp Schedule - 71.6f Default,    !- Holiday ScheduleDay Name
    Water Heater Ambient Temp Schedule - 71.6f Default,    !- SummerDesignDay ScheduleDay Name
    Water Heater Ambient Temp Schedule - 71.6f Default,    !- WinterDesignDay ScheduleDay Name
    Water Heater Ambient Temp Schedule - 71.6f Default,    !- CustomDay1 ScheduleDay Name
    Water Heater Ambient Temp Schedule - 71.6f Default;    !- CustomDay2 ScheduleDay Name

Schedule:Year,
    Fraction Latent - 0.05,    !- Name
    Fraction 1,               !- Schedule Type Limits Name
    Fraction Latent - 0.05 Week Rule - Jan1-Dec31,    !- ScheduleWeek Name 1
    1,                        !- Start Month 1
    1,                        !- Start Day 1
    12,                       !- End Month 1
    31;                       !- End Day 1

Schedule:Year,
    Fraction Sensible - 0.2,    !- Name
    Fraction,                 !- Schedule Type Limits Name
    Fraction Sensible - 0.2 Week Rule - Jan1-Dec31,    !- ScheduleWeek Name 1
    1,                        !- Start Month 1
    1,                        !- Start Day 1
    12,                       !- End Month 1
    31;                       !- End Day 1

Schedule:Year,
    Mixed Water At Faucet Temp - 140F,    !- Name
    Temperature,              !- Schedule Type Limits Name
    Mixed Water At Faucet Temp - 140F Week Rule - Jan1-Dec31,    !- ScheduleWeek Name 1
    1,                        !- Start Month 1
    1,                        !- Start Day 1
    12,                       !- End Month 1
    31;                       !- End Day 1

Schedule:Year,
    Schedule Ruleset 1,       !- Name
    Temperature 1,            !- Schedule Type Limits Name
    Schedule Ruleset 1 Week Rule - Jan1-Dec31,    !- ScheduleWeek Name 1
    1,                        !- Start Month 1
    1,                        !- Start Day 1
    12,                       !- End Month 1
    31;                       !- End Day 1

Schedule:Year,
    Schedule Ruleset 2,       !- Name
    Temperature 1,            !- Schedule Type Limits Name
    Schedule Ruleset 2 Week Rule - Jan1-Dec31,    !- ScheduleWeek Name 1
    1,                        !- Start Month 1
    1,                        !- Start Day 1
    12,                       !- End Month 1
    31;                       !- End Day 1

Schedule:Year,
    Service Water Loop Temp - 140F,    !- Name
    Temperature Schedule Type Limits,    !- Schedule Type Limits Name
    Service Water Loop Temp - 140F Week Rule - Jan1-Dec31,    !- ScheduleWeek Name 1
    1,                        !- Start Month 1
    1,                        !- Start Day 1
    12,                       !- End Month 1
    31;                       !- End Day 1

Schedule:Year,
    Water Heater Ambient Temp Schedule - 71.6f,    !- Name
    Temperature Schedule Type Limits 1,    !- Schedule Type Limits Name
    Water Heater Ambient Temp Schedule - 71.6f Week Rule - Jan1-Dec31,    !- ScheduleWeek Name 1
    1,                        !- Start Month 1
    1,                        !- Start Day 1
    12,                       !- End Month 1
    31;                       !- End Day 1

SCHEDULE:COMPACT,
    zone_list_Multifamily Thermostat Schedule,    !- Name
    ,                         !- Schedule Type Limits Name
    Through: 12/31,           !- Field 1
    For: AllDays,             !- Field 2
    Until: 24:00,             !- Field 3
    4;                        !- Field 4

SCHEDULE:COMPACT,
    zone_list_Multifamily Htg Thermostat Schedule,    !- Name
    ,                         !- Schedule Type Limits Name
    Through: 12/31,           !- Field 1
    For: AllDays,             !- Field 2
    Until: 24:00,             !- Field 3
    18;                       !- Field 4

SCHEDULE:COMPACT,
    zone_list_Multifamily Clg Thermostat Schedule,    !- Name
    ,                         !- Schedule Type Limits Name
    Through: 12/31,           !- Field 1
    For: AllDays,             !- Field 2
    Until: 24:00,             !- Field 3
    26;                       !- Field 4

SCHEDULE:FILE,
    bldg_occ_sch,             !- Name
    Any Number,               !- Schedule Type Limits Name
    /qfs/projects/elecload_modelfram/simulations/urbanbemtest0629/input/schedules/SITE_00002_schedules.csv,    !- File Name
    2,                        !- Column Number
    1,                        !- Rows to Skip at Top
    8760,                     !- Number of Hours of Data
    Comma,                    !- Column Separator
    No;                       !- Interpolate to Timestep

SCHEDULE:FILE,
    bldg_swh_use_sch,         !- Name
    Any Number,               !- Schedule Type Limits Name
    /qfs/projects/elecload_modelfram/simulations/urbanbemtest0629/input/schedules/SITE_00002_schedules.csv,    !- File Name
    3,                        !- Column Number
    1,                        !- Rows to Skip at Top
    8760,                     !- Number of Hours of Data
    Comma,                    !- Column Separator
    No;                       !- Interpolate to Timestep

SCHEDULE:FILE,
    bldg_electric_equipment_sch,    !- Name
    Any Number,               !- Schedule Type Limits Name
    /qfs/projects/elecload_modelfram/simulations/urbanbemtest0629/input/schedules/SITE_00002_schedules.csv,    !- File Name
    4,                        !- Column Number
    1,                        !- Rows to Skip at Top
    8760,                     !- Number of Hours of Data
    Comma,                    !- Column Separator
    No;                       !- Interpolate to Timestep

SCHEDULE:FILE,
    bldg_gas_equipment_sch,    !- Name
    Any Number,               !- Schedule Type Limits Name
    /qfs/projects/elecload_modelfram/simulations/urbanbemtest0629/input/schedules/SITE_00002_schedules.csv,    !- File Name
    5,                        !- Column Number
    1,                        !- Rows to Skip at Top
    8760,                     !- Number of Hours of Data
    Comma,                    !- Column Separator
    No;                       !- Interpolate to Timestep

SCHEDULE:FILE,
    bldg_light_sch,           !- Name
    Any Number,               !- Schedule Type Limits Name
    /qfs/projects/elecload_modelfram/simulations/urbanbemtest0629/input/schedules/SITE_00002_schedules.csv,    !- File Name
    6,                        !- Column Number
    1,                        !- Rows to Skip at Top
    8760,                     !- Number of Hours of Data
    Comma,                    !- Column Separator
    No;                       !- Interpolate to Timestep

SCHEDULE:FILE,
    bldg_ext_light_sch,       !- Name
    Any Number,               !- Schedule Type Limits Name
    /qfs/projects/elecload_modelfram/simulations/urbanbemtest0629/input/schedules/SITE_00002_schedules.csv,    !- File Name
    7,                        !- Column Number
    1,                        !- Rows to Skip at Top
    8760,                     !- Number of Hours of Data
    Comma,                    !- Column Separator
    No;                       !- Interpolate to Timestep

SCHEDULE:FILE,
    bldg_hvac_operation_sch,    !- Name
    Any Number,               !- Schedule Type Limits Name
    /qfs/projects/elecload_modelfram/simulations/urbanbemtest0629/input/schedules/SITE_00002_schedules.csv,    !- File Name
    8,                        !- Column Number
    1,                        !- Rows to Skip at Top
    8760,                     !- Number of Hours of Data
    Comma,                    !- Column Separator
    No;                       !- Interpolate to Timestep

SCHEDULE:FILE,
    bldg_clg_setp_sch,        !- Name
    Any Number,               !- Schedule Type Limits Name
    /qfs/projects/elecload_modelfram/simulations/urbanbemtest0629/input/schedules/SITE_00002_schedules.csv,    !- File Name
    9,                        !- Column Number
    1,                        !- Rows to Skip at Top
    8760,                     !- Number of Hours of Data
    Comma,                    !- Column Separator
    No;                       !- Interpolate to Timestep

SCHEDULE:FILE,
    bldg_htg_setp_sch,        !- Name
    Any Number,               !- Schedule Type Limits Name
    /qfs/projects/elecload_modelfram/simulations/urbanbemtest0629/input/schedules/SITE_00002_schedules.csv,    !- File Name
    10,                       !- Column Number
    1,                        !- Rows to Skip at Top
    8760,                     !- Number of Hours of Data
    Comma,                    !- Column Separator
    No;                       !- Interpolate to Timestep

SCHEDULE:FILE,
    bldg_infiltration_sch,    !- Name
    Any Number,               !- Schedule Type Limits Name
    /qfs/projects/elecload_modelfram/simulations/urbanbemtest0629/input/schedules/SITE_00002_schedules.csv,    !- File Name
    11,                       !- Column Number
    1,                        !- Rows to Skip at Top
    8760,                     !- Number of Hours of Data
    Comma,                    !- Column Separator
    No;                       !- Interpolate to Timestep

SCHEDULE:FILE,
    bldg_door_infiltration_sch,    !- Name
    Any Number,               !- Schedule Type Limits Name
    /qfs/projects/elecload_modelfram/simulations/urbanbemtest0629/input/schedules/SITE_00002_schedules.csv,    !- File Name
    12,                       !- Column Number
    1,                        !- Rows to Skip at Top
    8760,                     !- Number of Hours of Data
    Comma,                    !- Column Separator
    No;                       !- Interpolate to Timestep

SCHEDULE:FILE,
    activity_sch,             !- Name
    Any Number,               !- Schedule Type Limits Name
    /qfs/projects/elecload_modelfram/simulations/urbanbemtest0629/input/schedules/SITE_00002_schedules.csv,    !- File Name
    13,                       !- Column Number
    1,                        !- Rows to Skip at Top
    8760,                     !- Number of Hours of Data
    Comma,                    !- Column Separator
    No;                       !- Interpolate to Timestep

SCHEDULE:FILE,
    always_on,                !- Name
    Any Number,               !- Schedule Type Limits Name
    /qfs/projects/elecload_modelfram/simulations/urbanbemtest0629/input/schedules/SITE_00002_schedules.csv,    !- File Name
    14,                       !- Column Number
    1,                        !- Rows to Skip at Top
    8760,                     !- Number of Hours of Data
    Comma,                    !- Column Separator
    No;                       !- Interpolate to Timestep

MATERIAL,
    g01_13mm_gypsum_board,    !- Name
    Smooth,                   !- Roughness
    0.0127,                   !- Thickness
    0.16,                     !- Conductivity
    800,                      !- Density
    1090,                     !- Specific Heat
    0.9,                      !- Thermal Absorptance
    0.7,                      !- Solar Absorptance
    0.5;                      !- Visible Absorptance

MATERIAL,
    100mm_normalweight_concrete_floor,    !- Name
    MediumRough,              !- Roughness
    0.1016,                   !- Thickness
    2.31,                     !- Conductivity
    2322,                     !- Density
    832,                      !- Specific Heat
    0.9,                      !- Thermal Absorptance
    0.7,                      !- Solar Absorptance
    0.7;                      !- Visible Absorptance

MATERIAL,
    f07_25mm_stucco,          !- Name
    Smooth,                   !- Roughness
    0.0254,                   !- Thickness
    0.72,                     !- Conductivity
    1856,                     !- Density
    840,                      !- Specific Heat
    0.9,                      !- Thermal Absorptance
    0.7,                      !- Solar Absorptance
    0.7;                      !- Visible Absorptance

MATERIAL,
    g01_16mm_gypsum_board,    !- Name
    MediumSmooth,             !- Roughness
    0.0159,                   !- Thickness
    0.16,                     !- Conductivity
    800,                      !- Density
    1090,                     !- Specific Heat
    0.9,                      !- Thermal Absorptance
    0.7,                      !- Solar Absorptance
    0.7;                      !- Visible Absorptance

MATERIAL,
    f12_asphalt_shingles,     !- Name
    VeryRough,                !- Roughness
    0.0032,                   !- Thickness
    0.04,                     !- Conductivity
    1120,                     !- Density
    1260,                     !- Specific Heat
    0.9,                      !- Thermal Absorptance
    0.7,                      !- Solar Absorptance
    0.7;                      !- Visible Absorptance

MATERIAL,
    g02_16mm_plywood,         !- Name
    Smooth,                   !- Roughness
    0.0159,                   !- Thickness
    0.12,                     !- Conductivity
    544,                      !- Density
    1210,                     !- Specific Heat
    0.9,                      !- Thermal Absorptance
    0.7,                      !- Solar Absorptance
    0.7;                      !- Visible Absorptance

MATERIAL:NOMASS,
    cp02_carpet_pad,          !- Name
    VeryRough,                !- Roughness
    0.21648,                  !- Thermal Resistance
    0.9,                      !- Thermal Absorptance
    0.7,                      !- Solar Absorptance
    0.8;                      !- Visible Absorptance

MATERIAL:NOMASS,
    wall_ins_layer_R_2.3680,    !- Name
    VeryRough,                !- Roughness
    2.368,                    !- Thermal Resistance
    0.9,                      !- Thermal Absorptance
    0.7,                      !- Solar Absorptance
    0.8;                      !- Visible Absorptance

WINDOWMATERIAL:SIMPLEGLAZINGSYSTEM,
    glazing_u_2.2596_shgc_0.3350,    !- Name
    2.2595834168899356,       !- UFactor
    0.335;                    !- Solar Heat Gain Coefficient

CONSTRUCTION,